
---------- Begin Simulation Statistics ----------
sim_seconds                                  1.946181                       # Number of seconds simulated
sim_ticks                                1946181314000                       # Number of ticks simulated
final_tick                               1946181314000                       # Number of ticks from beginning of simulation (restored from checkpoints and never reset)
sim_freq                                 1000000000000                       # Frequency of simulated ticks
host_inst_rate                                 853974                       # Simulator instruction rate (inst/s)
host_op_rate                                  1367917                       # Simulator op (including micro ops) rate (op/s)
host_tick_rate                             1783862772                       # Simulator tick rate (ticks/s)
host_mem_usage                                 671760                       # Number of bytes of host memory used
host_seconds                                  1090.99                       # Real time elapsed on the host
sim_insts                                   931679899                       # Number of instructions simulated
sim_ops                                    1492387764                       # Number of ops (including micro ops) simulated
system.voltage_domain.voltage                       1                       # Voltage in Volts
system.clk_domain.clock                          1000                       # Clock period in ticks
system.mem_ctrls.pwrStateResidencyTicks::UNDEFINED 1946181314000                       # Cumulative time (in ticks) in various power states
system.mem_ctrls.bytes_read::cpu.inst           22272                       # Number of bytes read from this memory
system.mem_ctrls.bytes_read::cpu.data         1094464                       # Number of bytes read from this memory
system.mem_ctrls.bytes_read::total            1116736                       # Number of bytes read from this memory
system.mem_ctrls.bytes_inst_read::cpu.inst        22272                       # Number of instructions bytes read from this memory
system.mem_ctrls.bytes_inst_read::total         22272                       # Number of instructions bytes read from this memory
system.mem_ctrls.bytes_written::writebacks        44288                       # Number of bytes written to this memory
system.mem_ctrls.bytes_written::total           44288                       # Number of bytes written to this memory
system.mem_ctrls.num_reads::cpu.inst              348                       # Number of read requests responded to by this memory
system.mem_ctrls.num_reads::cpu.data            17101                       # Number of read requests responded to by this memory
system.mem_ctrls.num_reads::total               17449                       # Number of read requests responded to by this memory
system.mem_ctrls.num_writes::writebacks           692                       # Number of write requests responded to by this memory
system.mem_ctrls.num_writes::total                692                       # Number of write requests responded to by this memory
system.mem_ctrls.bw_read::cpu.inst              11444                       # Total read bandwidth from this memory (bytes/s)
system.mem_ctrls.bw_read::cpu.data             562365                       # Total read bandwidth from this memory (bytes/s)
system.mem_ctrls.bw_read::total                573809                       # Total read bandwidth from this memory (bytes/s)
system.mem_ctrls.bw_inst_read::cpu.inst         11444                       # Instruction read bandwidth from this memory (bytes/s)
system.mem_ctrls.bw_inst_read::total            11444                       # Instruction read bandwidth from this memory (bytes/s)
system.mem_ctrls.bw_write::writebacks           22756                       # Write bandwidth from this memory (bytes/s)
system.mem_ctrls.bw_write::total                22756                       # Write bandwidth from this memory (bytes/s)
system.mem_ctrls.bw_total::writebacks           22756                       # Total bandwidth to/from this memory (bytes/s)
system.mem_ctrls.bw_total::cpu.inst             11444                       # Total bandwidth to/from this memory (bytes/s)
system.mem_ctrls.bw_total::cpu.data            562365                       # Total bandwidth to/from this memory (bytes/s)
system.mem_ctrls.bw_total::total               596565                       # Total bandwidth to/from this memory (bytes/s)
system.pwrStateResidencyTicks::UNDEFINED 1946181314000                       # Cumulative time (in ticks) in various power states
system.cpu_voltage_domain.voltage                   1                       # Voltage in Volts
system.cpu_clk_domain.clock                       500                       # Clock period in ticks
system.cpu.dtb.walker.pwrStateResidencyTicks::UNDEFINED 1946181314000                       # Cumulative time (in ticks) in various power states
system.cpu.dtb.rdAccesses                   382684103                       # TLB accesses on read requests
system.cpu.dtb.wrAccesses                    56342478                       # TLB accesses on write requests
system.cpu.dtb.rdMisses                       7936442                       # TLB misses on read requests
system.cpu.dtb.wrMisses                           272                       # TLB misses on write requests
system.cpu.apic_clk_domain.clock                 8000                       # Clock period in ticks
system.cpu.interrupts.pwrStateResidencyTicks::UNDEFINED 1946181314000                       # Cumulative time (in ticks) in various power states
system.cpu.itb.walker.pwrStateResidencyTicks::UNDEFINED 1946181314000                       # Cumulative time (in ticks) in various power states
system.cpu.itb.rdAccesses                           0                       # TLB accesses on read requests
system.cpu.itb.wrAccesses                  1449455626                       # TLB accesses on write requests
system.cpu.itb.rdMisses                             0                       # TLB misses on read requests
system.cpu.itb.wrMisses                            37                       # TLB misses on write requests
system.cpu.workload.numSyscalls                     9                       # Number of system calls
system.cpu.pwrStateResidencyTicks::ON    1946181314000                       # Cumulative time (in ticks) in various power states
system.cpu.numCycles                       3892362628                       # number of cpu cycles simulated
system.cpu.numWorkItemsStarted                      0                       # number of work items this cpu started
system.cpu.numWorkItemsCompleted                    0                       # number of work items this cpu completed
system.cpu.committedInsts                   931679899                       # Number of instructions committed
system.cpu.committedOps                    1492387764                       # Number of ops (including micro ops) committed
system.cpu.num_int_alu_accesses            1491881050                       # Number of integer alu accesses
system.cpu.num_fp_alu_accesses                   1943                       # Number of float alu accesses
system.cpu.num_vec_alu_accesses                     0                       # Number of vector alu accesses
system.cpu.num_func_calls                     1080242                       # number of times a function call or return occured
system.cpu.num_conditional_control_insts     29571457                       # number of instructions that are conditional controls
system.cpu.num_int_insts                   1491881050                       # number of integer instructions
system.cpu.num_fp_insts                          1943                       # number of float instructions
system.cpu.num_vec_insts                            0                       # number of vector instructions
system.cpu.num_int_register_reads          2934935010                       # number of times the integer registers were read
system.cpu.num_int_register_writes         1545692941                       # number of times the integer registers were written
system.cpu.num_fp_register_reads                 3767                       # number of times the floating registers were read
system.cpu.num_fp_register_writes                1480                       # number of times the floating registers were written
system.cpu.num_vec_register_reads                   0                       # number of times the vector registers were read
system.cpu.num_vec_register_writes                  0                       # number of times the vector registers were written
system.cpu.num_cc_register_reads            159199316                       # number of times the CC registers were read
system.cpu.num_cc_register_writes           523310534                       # number of times the CC registers were written
system.cpu.num_mem_refs                     439026579                       # number of memory refs
system.cpu.num_load_insts                   382684101                       # Number of load instructions
system.cpu.num_store_insts                   56342478                       # Number of store instructions
system.cpu.num_idle_cycles                          0                       # Number of idle cycles
system.cpu.num_busy_cycles                 3892362628                       # Number of busy cycles
system.cpu.not_idle_fraction                        1                       # Percentage of non-idle cycles
system.cpu.idle_fraction                            0                       # Percentage of idle cycles
system.cpu.Branches                          30742409                       # Number of branches fetched
system.cpu.op_class::No_OpClass                505293      0.03%      0.03% # Class of executed instruction
system.cpu.op_class::IntAlu                 915024146     61.31%     61.35% # Class of executed instruction
system.cpu.op_class::IntMult                135270004      9.06%     70.41% # Class of executed instruction
system.cpu.op_class::IntDiv                   2560782      0.17%     70.58% # Class of executed instruction
system.cpu.op_class::FloatAdd                      10      0.00%     70.58% # Class of executed instruction
system.cpu.op_class::FloatCmp                       0      0.00%     70.58% # Class of executed instruction
system.cpu.op_class::FloatCvt                       0      0.00%     70.58% # Class of executed instruction
system.cpu.op_class::FloatMult                      0      0.00%     70.58% # Class of executed instruction
system.cpu.op_class::FloatMultAcc                   0      0.00%     70.58% # Class of executed instruction
system.cpu.op_class::FloatDiv                       0      0.00%     70.58% # Class of executed instruction
system.cpu.op_class::FloatMisc                      0      0.00%     70.58% # Class of executed instruction
system.cpu.op_class::FloatSqrt                      0      0.00%     70.58% # Class of executed instruction
system.cpu.op_class::SimdAdd                      374      0.00%     70.58% # Class of executed instruction
system.cpu.op_class::SimdAddAcc                     0      0.00%     70.58% # Class of executed instruction
system.cpu.op_class::SimdAlu                       68      0.00%     70.58% # Class of executed instruction
system.cpu.op_class::SimdCmp                        0      0.00%     70.58% # Class of executed instruction
system.cpu.op_class::SimdCvt                      108      0.00%     70.58% # Class of executed instruction
system.cpu.op_class::SimdMisc                     214      0.00%     70.58% # Class of executed instruction
system.cpu.op_class::SimdMult                       0      0.00%     70.58% # Class of executed instruction
system.cpu.op_class::SimdMultAcc                    0      0.00%     70.58% # Class of executed instruction
system.cpu.op_class::SimdShift                    186      0.00%     70.58% # Class of executed instruction
system.cpu.op_class::SimdShiftAcc                   0      0.00%     70.58% # Class of executed instruction
system.cpu.op_class::SimdSqrt                       0      0.00%     70.58% # Class of executed instruction
system.cpu.op_class::SimdFloatAdd                   0      0.00%     70.58% # Class of executed instruction
system.cpu.op_class::SimdFloatAlu                   0      0.00%     70.58% # Class of executed instruction
system.cpu.op_class::SimdFloatCmp                   0      0.00%     70.58% # Class of executed instruction
system.cpu.op_class::SimdFloatCvt                   0      0.00%     70.58% # Class of executed instruction
system.cpu.op_class::SimdFloatDiv                   0      0.00%     70.58% # Class of executed instruction
system.cpu.op_class::SimdFloatMisc                  0      0.00%     70.58% # Class of executed instruction
system.cpu.op_class::SimdFloatMult                  0      0.00%     70.58% # Class of executed instruction
system.cpu.op_class::SimdFloatMultAcc               0      0.00%     70.58% # Class of executed instruction
system.cpu.op_class::SimdFloatSqrt                  0      0.00%     70.58% # Class of executed instruction
system.cpu.op_class::MemRead                382684045     25.64%     96.22% # Class of executed instruction
system.cpu.op_class::MemWrite                56342063      3.78%    100.00% # Class of executed instruction
system.cpu.op_class::FloatMemRead                  56      0.00%    100.00% # Class of executed instruction
system.cpu.op_class::FloatMemWrite                415      0.00%    100.00% # Class of executed instruction
system.cpu.op_class::IprAccess                      0      0.00%    100.00% # Class of executed instruction
system.cpu.op_class::InstPrefetch                   0      0.00%    100.00% # Class of executed instruction
system.cpu.op_class::total                 1492387764                       # Class of executed instruction
system.cpu.dcache.tags.pwrStateResidencyTicks::UNDEFINED 1946181314000                       # Cumulative time (in ticks) in various power states
system.cpu.dcache.tags.tagsinuse           511.919280                       # Cycle average of tags in use
system.cpu.dcache.tags.total_refs           439026581                       # Total number of references to valid blocks.
system.cpu.dcache.tags.sampled_refs           1767548                       # Sample count of references to valid blocks.
system.cpu.dcache.tags.avg_refs            248.381702                       # Average number of references to valid blocks.
system.cpu.dcache.tags.warmup_cycle            759000                       # Cycle when the warmup percentage was hit.
system.cpu.dcache.tags.occ_blocks::cpu.data   511.919280                       # Average occupied blocks per requestor
system.cpu.dcache.tags.occ_percent::cpu.data     0.999842                       # Average percentage of cache occupancy
system.cpu.dcache.tags.occ_percent::total     0.999842                       # Average percentage of cache occupancy
system.cpu.dcache.tags.occ_task_id_blocks::1024          512                       # Occupied blocks per task id
system.cpu.dcache.tags.age_task_id_blocks_1024::0           10                       # Occupied blocks per task id
system.cpu.dcache.tags.age_task_id_blocks_1024::1           48                       # Occupied blocks per task id
system.cpu.dcache.tags.age_task_id_blocks_1024::2          437                       # Occupied blocks per task id
system.cpu.dcache.tags.age_task_id_blocks_1024::3           16                       # Occupied blocks per task id
system.cpu.dcache.tags.age_task_id_blocks_1024::4            1                       # Occupied blocks per task id
system.cpu.dcache.tags.occ_task_id_percent::1024            1                       # Percentage of cache occupancy per task id
system.cpu.dcache.tags.tag_accesses        1757873872                       # Number of tag accesses
system.cpu.dcache.tags.data_accesses       1757873872                       # Number of data accesses
system.cpu.dcache.pwrStateResidencyTicks::UNDEFINED 1946181314000                       # Cumulative time (in ticks) in various power states
system.cpu.dcache.ReadReq_hits::cpu.data    380933552                       # number of ReadReq hits
system.cpu.dcache.ReadReq_hits::total       380933552                       # number of ReadReq hits
system.cpu.dcache.WriteReq_hits::cpu.data     56325481                       # number of WriteReq hits
system.cpu.dcache.WriteReq_hits::total       56325481                       # number of WriteReq hits
system.cpu.dcache.demand_hits::cpu.data     437259033                       # number of demand (read+write) hits
system.cpu.dcache.demand_hits::total        437259033                       # number of demand (read+write) hits
system.cpu.dcache.overall_hits::cpu.data    437259033                       # number of overall hits
system.cpu.dcache.overall_hits::total       437259033                       # number of overall hits
system.cpu.dcache.ReadReq_misses::cpu.data      1750551                       # number of ReadReq misses
system.cpu.dcache.ReadReq_misses::total       1750551                       # number of ReadReq misses
system.cpu.dcache.WriteReq_misses::cpu.data        16997                       # number of WriteReq misses
system.cpu.dcache.WriteReq_misses::total        16997                       # number of WriteReq misses
system.cpu.dcache.demand_misses::cpu.data      1767548                       # number of demand (read+write) misses
system.cpu.dcache.demand_misses::total        1767548                       # number of demand (read+write) misses
system.cpu.dcache.overall_misses::cpu.data      1767548                       # number of overall misses
system.cpu.dcache.overall_misses::total       1767548                       # number of overall misses
system.cpu.dcache.ReadReq_miss_latency::cpu.data  58364294000                       # number of ReadReq miss cycles
system.cpu.dcache.ReadReq_miss_latency::total  58364294000                       # number of ReadReq miss cycles
system.cpu.dcache.WriteReq_miss_latency::cpu.data   1033179000                       # number of WriteReq miss cycles
system.cpu.dcache.WriteReq_miss_latency::total   1033179000                       # number of WriteReq miss cycles
system.cpu.dcache.demand_miss_latency::cpu.data  59397473000                       # number of demand (read+write) miss cycles
system.cpu.dcache.demand_miss_latency::total  59397473000                       # number of demand (read+write) miss cycles
system.cpu.dcache.overall_miss_latency::cpu.data  59397473000                       # number of overall miss cycles
system.cpu.dcache.overall_miss_latency::total  59397473000                       # number of overall miss cycles
system.cpu.dcache.ReadReq_accesses::cpu.data    382684103                       # number of ReadReq accesses(hits+misses)
system.cpu.dcache.ReadReq_accesses::total    382684103                       # number of ReadReq accesses(hits+misses)
system.cpu.dcache.WriteReq_accesses::cpu.data     56342478                       # number of WriteReq accesses(hits+misses)
system.cpu.dcache.WriteReq_accesses::total     56342478                       # number of WriteReq accesses(hits+misses)
system.cpu.dcache.demand_accesses::cpu.data    439026581                       # number of demand (read+write) accesses
system.cpu.dcache.demand_accesses::total    439026581                       # number of demand (read+write) accesses
system.cpu.dcache.overall_accesses::cpu.data    439026581                       # number of overall (read+write) accesses
system.cpu.dcache.overall_accesses::total    439026581                       # number of overall (read+write) accesses
system.cpu.dcache.ReadReq_miss_rate::cpu.data     0.004574                       # miss rate for ReadReq accesses
system.cpu.dcache.ReadReq_miss_rate::total     0.004574                       # miss rate for ReadReq accesses
system.cpu.dcache.WriteReq_miss_rate::cpu.data     0.000302                       # miss rate for WriteReq accesses
system.cpu.dcache.WriteReq_miss_rate::total     0.000302                       # miss rate for WriteReq accesses
system.cpu.dcache.demand_miss_rate::cpu.data     0.004026                       # miss rate for demand accesses
system.cpu.dcache.demand_miss_rate::total     0.004026                       # miss rate for demand accesses
system.cpu.dcache.overall_miss_rate::cpu.data     0.004026                       # miss rate for overall accesses
system.cpu.dcache.overall_miss_rate::total     0.004026                       # miss rate for overall accesses
system.cpu.dcache.ReadReq_avg_miss_latency::cpu.data 33340.527640                       # average ReadReq miss latency
system.cpu.dcache.ReadReq_avg_miss_latency::total 33340.527640                       # average ReadReq miss latency
system.cpu.dcache.WriteReq_avg_miss_latency::cpu.data 60785.962229                       # average WriteReq miss latency
system.cpu.dcache.WriteReq_avg_miss_latency::total 60785.962229                       # average WriteReq miss latency
system.cpu.dcache.demand_avg_miss_latency::cpu.data 33604.446951                       # average overall miss latency
system.cpu.dcache.demand_avg_miss_latency::total 33604.446951                       # average overall miss latency
system.cpu.dcache.overall_avg_miss_latency::cpu.data 33604.446951                       # average overall miss latency
system.cpu.dcache.overall_avg_miss_latency::total 33604.446951                       # average overall miss latency
system.cpu.dcache.blocked_cycles::no_mshrs            0                       # number of cycles access was blocked
system.cpu.dcache.blocked_cycles::no_targets            0                       # number of cycles access was blocked
system.cpu.dcache.blocked::no_mshrs                 0                       # number of cycles access was blocked
system.cpu.dcache.blocked::no_targets               0                       # number of cycles access was blocked
system.cpu.dcache.avg_blocked_cycles::no_mshrs          nan                       # average number of cycles each access was blocked
system.cpu.dcache.avg_blocked_cycles::no_targets          nan                       # average number of cycles each access was blocked
system.cpu.dcache.writebacks::writebacks        72978                       # number of writebacks
system.cpu.dcache.writebacks::total             72978                       # number of writebacks
system.cpu.dcache.ReadReq_mshr_misses::cpu.data      1750551                       # number of ReadReq MSHR misses
system.cpu.dcache.ReadReq_mshr_misses::total      1750551                       # number of ReadReq MSHR misses
system.cpu.dcache.WriteReq_mshr_misses::cpu.data        16997                       # number of WriteReq MSHR misses
system.cpu.dcache.WriteReq_mshr_misses::total        16997                       # number of WriteReq MSHR misses
system.cpu.dcache.demand_mshr_misses::cpu.data      1767548                       # number of demand (read+write) MSHR misses
system.cpu.dcache.demand_mshr_misses::total      1767548                       # number of demand (read+write) MSHR misses
system.cpu.dcache.overall_mshr_misses::cpu.data      1767548                       # number of overall MSHR misses
system.cpu.dcache.overall_mshr_misses::total      1767548                       # number of overall MSHR misses
system.cpu.dcache.ReadReq_mshr_miss_latency::cpu.data  56613743000                       # number of ReadReq MSHR miss cycles
system.cpu.dcache.ReadReq_mshr_miss_latency::total  56613743000                       # number of ReadReq MSHR miss cycles
system.cpu.dcache.WriteReq_mshr_miss_latency::cpu.data   1016182000                       # number of WriteReq MSHR miss cycles
system.cpu.dcache.WriteReq_mshr_miss_latency::total   1016182000                       # number of WriteReq MSHR miss cycles
system.cpu.dcache.demand_mshr_miss_latency::cpu.data  57629925000                       # number of demand (read+write) MSHR miss cycles
system.cpu.dcache.demand_mshr_miss_latency::total  57629925000                       # number of demand (read+write) MSHR miss cycles
system.cpu.dcache.overall_mshr_miss_latency::cpu.data  57629925000                       # number of overall MSHR miss cycles
system.cpu.dcache.overall_mshr_miss_latency::total  57629925000                       # number of overall MSHR miss cycles
system.cpu.dcache.ReadReq_mshr_miss_rate::cpu.data     0.004574                       # mshr miss rate for ReadReq accesses
system.cpu.dcache.ReadReq_mshr_miss_rate::total     0.004574                       # mshr miss rate for ReadReq accesses
system.cpu.dcache.WriteReq_mshr_miss_rate::cpu.data     0.000302                       # mshr miss rate for WriteReq accesses
system.cpu.dcache.WriteReq_mshr_miss_rate::total     0.000302                       # mshr miss rate for WriteReq accesses
system.cpu.dcache.demand_mshr_miss_rate::cpu.data     0.004026                       # mshr miss rate for demand accesses
system.cpu.dcache.demand_mshr_miss_rate::total     0.004026                       # mshr miss rate for demand accesses
system.cpu.dcache.overall_mshr_miss_rate::cpu.data     0.004026                       # mshr miss rate for overall accesses
system.cpu.dcache.overall_mshr_miss_rate::total     0.004026                       # mshr miss rate for overall accesses
system.cpu.dcache.ReadReq_avg_mshr_miss_latency::cpu.data 32340.527640                       # average ReadReq mshr miss latency
system.cpu.dcache.ReadReq_avg_mshr_miss_latency::total 32340.527640                       # average ReadReq mshr miss latency
system.cpu.dcache.WriteReq_avg_mshr_miss_latency::cpu.data 59785.962229                       # average WriteReq mshr miss latency
system.cpu.dcache.WriteReq_avg_mshr_miss_latency::total 59785.962229                       # average WriteReq mshr miss latency
system.cpu.dcache.demand_avg_mshr_miss_latency::cpu.data 32604.446951                       # average overall mshr miss latency
system.cpu.dcache.demand_avg_mshr_miss_latency::total 32604.446951                       # average overall mshr miss latency
system.cpu.dcache.overall_avg_mshr_miss_latency::cpu.data 32604.446951                       # average overall mshr miss latency
system.cpu.dcache.overall_avg_mshr_miss_latency::total 32604.446951                       # average overall mshr miss latency
system.cpu.dcache.replacements                1767036                       # number of replacements
system.cpu.dtb_walker_cache.tags.pwrStateResidencyTicks::UNDEFINED 1946181314000                       # Cumulative time (in ticks) in various power states
system.cpu.dtb_walker_cache.tags.tagsinuse            0                       # Cycle average of tags in use
system.cpu.dtb_walker_cache.tags.total_refs            0                       # Total number of references to valid blocks.
system.cpu.dtb_walker_cache.tags.sampled_refs            0                       # Sample count of references to valid blocks.
system.cpu.dtb_walker_cache.tags.avg_refs          nan                       # Average number of references to valid blocks.
system.cpu.dtb_walker_cache.tags.warmup_cycle            0                       # Cycle when the warmup percentage was hit.
system.cpu.dtb_walker_cache.tags.tag_accesses            0                       # Number of tag accesses
system.cpu.dtb_walker_cache.tags.data_accesses            0                       # Number of data accesses
system.cpu.dtb_walker_cache.pwrStateResidencyTicks::UNDEFINED 1946181314000                       # Cumulative time (in ticks) in various power states
system.cpu.dtb_walker_cache.blocked_cycles::no_mshrs            0                       # number of cycles access was blocked
system.cpu.dtb_walker_cache.blocked_cycles::no_targets            0                       # number of cycles access was blocked
system.cpu.dtb_walker_cache.blocked::no_mshrs            0                       # number of cycles access was blocked
system.cpu.dtb_walker_cache.blocked::no_targets            0                       # number of cycles access was blocked
system.cpu.dtb_walker_cache.avg_blocked_cycles::no_mshrs          nan                       # average number of cycles each access was blocked
system.cpu.dtb_walker_cache.avg_blocked_cycles::no_targets          nan                       # average number of cycles each access was blocked
system.cpu.dtb_walker_cache.replacements            0                       # number of replacements
system.cpu.icache.tags.pwrStateResidencyTicks::UNDEFINED 1946181314000                       # Cumulative time (in ticks) in various power states
system.cpu.icache.tags.tagsinuse           302.946040                       # Cycle average of tags in use
system.cpu.icache.tags.total_refs          1449455626                       # Total number of references to valid blocks.
system.cpu.icache.tags.sampled_refs               348                       # Sample count of references to valid blocks.
system.cpu.icache.tags.avg_refs          4165102.373563                       # Average number of references to valid blocks.
system.cpu.icache.tags.warmup_cycle            439000                       # Cycle when the warmup percentage was hit.
system.cpu.icache.tags.occ_blocks::cpu.inst   302.946040                       # Average occupied blocks per requestor
system.cpu.icache.tags.occ_percent::cpu.inst     0.591691                       # Average percentage of cache occupancy
system.cpu.icache.tags.occ_percent::total     0.591691                       # Average percentage of cache occupancy
system.cpu.icache.tags.occ_task_id_blocks::1024          338                       # Occupied blocks per task id
system.cpu.icache.tags.age_task_id_blocks_1024::0           14                       # Occupied blocks per task id
system.cpu.icache.tags.age_task_id_blocks_1024::1           25                       # Occupied blocks per task id
system.cpu.icache.tags.age_task_id_blocks_1024::4          299                       # Occupied blocks per task id
system.cpu.icache.tags.occ_task_id_percent::1024     0.660156                       # Percentage of cache occupancy per task id
system.cpu.icache.tags.tag_accesses        5797822852                       # Number of tag accesses
system.cpu.icache.tags.data_accesses       5797822852                       # Number of data accesses
system.cpu.icache.pwrStateResidencyTicks::UNDEFINED 1946181314000                       # Cumulative time (in ticks) in various power states
system.cpu.icache.ReadReq_hits::cpu.inst   1449455278                       # number of ReadReq hits
system.cpu.icache.ReadReq_hits::total      1449455278                       # number of ReadReq hits
system.cpu.icache.demand_hits::cpu.inst    1449455278                       # number of demand (read+write) hits
system.cpu.icache.demand_hits::total       1449455278                       # number of demand (read+write) hits
system.cpu.icache.overall_hits::cpu.inst   1449455278                       # number of overall hits
system.cpu.icache.overall_hits::total      1449455278                       # number of overall hits
system.cpu.icache.ReadReq_misses::cpu.inst          348                       # number of ReadReq misses
system.cpu.icache.ReadReq_misses::total           348                       # number of ReadReq misses
system.cpu.icache.demand_misses::cpu.inst          348                       # number of demand (read+write) misses
system.cpu.icache.demand_misses::total            348                       # number of demand (read+write) misses
system.cpu.icache.overall_misses::cpu.inst          348                       # number of overall misses
system.cpu.icache.overall_misses::total           348                       # number of overall misses
system.cpu.icache.ReadReq_miss_latency::cpu.inst     69533000                       # number of ReadReq miss cycles
system.cpu.icache.ReadReq_miss_latency::total     69533000                       # number of ReadReq miss cycles
system.cpu.icache.demand_miss_latency::cpu.inst     69533000                       # number of demand (read+write) miss cycles
system.cpu.icache.demand_miss_latency::total     69533000                       # number of demand (read+write) miss cycles
system.cpu.icache.overall_miss_latency::cpu.inst     69533000                       # number of overall miss cycles
system.cpu.icache.overall_miss_latency::total     69533000                       # number of overall miss cycles
system.cpu.icache.ReadReq_accesses::cpu.inst   1449455626                       # number of ReadReq accesses(hits+misses)
system.cpu.icache.ReadReq_accesses::total   1449455626                       # number of ReadReq accesses(hits+misses)
system.cpu.icache.demand_accesses::cpu.inst   1449455626                       # number of demand (read+write) accesses
system.cpu.icache.demand_accesses::total   1449455626                       # number of demand (read+write) accesses
system.cpu.icache.overall_accesses::cpu.inst   1449455626                       # number of overall (read+write) accesses
system.cpu.icache.overall_accesses::total   1449455626                       # number of overall (read+write) accesses
system.cpu.icache.ReadReq_miss_rate::cpu.inst     0.000000                       # miss rate for ReadReq accesses
system.cpu.icache.ReadReq_miss_rate::total     0.000000                       # miss rate for ReadReq accesses
system.cpu.icache.demand_miss_rate::cpu.inst     0.000000                       # miss rate for demand accesses
system.cpu.icache.demand_miss_rate::total     0.000000                       # miss rate for demand accesses
system.cpu.icache.overall_miss_rate::cpu.inst     0.000000                       # miss rate for overall accesses
system.cpu.icache.overall_miss_rate::total     0.000000                       # miss rate for overall accesses
system.cpu.icache.ReadReq_avg_miss_latency::cpu.inst 199807.471264                       # average ReadReq miss latency
system.cpu.icache.ReadReq_avg_miss_latency::total 199807.471264                       # average ReadReq miss latency
system.cpu.icache.demand_avg_miss_latency::cpu.inst 199807.471264                       # average overall miss latency
system.cpu.icache.demand_avg_miss_latency::total 199807.471264                       # average overall miss latency
system.cpu.icache.overall_avg_miss_latency::cpu.inst 199807.471264                       # average overall miss latency
system.cpu.icache.overall_avg_miss_latency::total 199807.471264                       # average overall miss latency
system.cpu.icache.blocked_cycles::no_mshrs            0                       # number of cycles access was blocked
system.cpu.icache.blocked_cycles::no_targets            0                       # number of cycles access was blocked
system.cpu.icache.blocked::no_mshrs                 0                       # number of cycles access was blocked
system.cpu.icache.blocked::no_targets               0                       # number of cycles access was blocked
system.cpu.icache.avg_blocked_cycles::no_mshrs          nan                       # average number of cycles each access was blocked
system.cpu.icache.avg_blocked_cycles::no_targets          nan                       # average number of cycles each access was blocked
system.cpu.icache.writebacks::writebacks           10                       # number of writebacks
system.cpu.icache.writebacks::total                10                       # number of writebacks
system.cpu.icache.ReadReq_mshr_misses::cpu.inst          348                       # number of ReadReq MSHR misses
system.cpu.icache.ReadReq_mshr_misses::total          348                       # number of ReadReq MSHR misses
system.cpu.icache.demand_mshr_misses::cpu.inst          348                       # number of demand (read+write) MSHR misses
system.cpu.icache.demand_mshr_misses::total          348                       # number of demand (read+write) MSHR misses
system.cpu.icache.overall_mshr_misses::cpu.inst          348                       # number of overall MSHR misses
system.cpu.icache.overall_mshr_misses::total          348                       # number of overall MSHR misses
system.cpu.icache.ReadReq_mshr_miss_latency::cpu.inst     69185000                       # number of ReadReq MSHR miss cycles
system.cpu.icache.ReadReq_mshr_miss_latency::total     69185000                       # number of ReadReq MSHR miss cycles
system.cpu.icache.demand_mshr_miss_latency::cpu.inst     69185000                       # number of demand (read+write) MSHR miss cycles
system.cpu.icache.demand_mshr_miss_latency::total     69185000                       # number of demand (read+write) MSHR miss cycles
system.cpu.icache.overall_mshr_miss_latency::cpu.inst     69185000                       # number of overall MSHR miss cycles
system.cpu.icache.overall_mshr_miss_latency::total     69185000                       # number of overall MSHR miss cycles
system.cpu.icache.ReadReq_mshr_miss_rate::cpu.inst     0.000000                       # mshr miss rate for ReadReq accesses
system.cpu.icache.ReadReq_mshr_miss_rate::total     0.000000                       # mshr miss rate for ReadReq accesses
system.cpu.icache.demand_mshr_miss_rate::cpu.inst     0.000000                       # mshr miss rate for demand accesses
system.cpu.icache.demand_mshr_miss_rate::total     0.000000                       # mshr miss rate for demand accesses
system.cpu.icache.overall_mshr_miss_rate::cpu.inst     0.000000                       # mshr miss rate for overall accesses
system.cpu.icache.overall_mshr_miss_rate::total     0.000000                       # mshr miss rate for overall accesses
system.cpu.icache.ReadReq_avg_mshr_miss_latency::cpu.inst 198807.471264                       # average ReadReq mshr miss latency
system.cpu.icache.ReadReq_avg_mshr_miss_latency::total 198807.471264                       # average ReadReq mshr miss latency
system.cpu.icache.demand_avg_mshr_miss_latency::cpu.inst 198807.471264                       # average overall mshr miss latency
system.cpu.icache.demand_avg_mshr_miss_latency::total 198807.471264                       # average overall mshr miss latency
system.cpu.icache.overall_avg_mshr_miss_latency::cpu.inst 198807.471264                       # average overall mshr miss latency
system.cpu.icache.overall_avg_mshr_miss_latency::total 198807.471264                       # average overall mshr miss latency
system.cpu.icache.replacements                     10                       # number of replacements
system.cpu.itb_walker_cache.tags.pwrStateResidencyTicks::UNDEFINED 1946181314000                       # Cumulative time (in ticks) in various power states
system.cpu.itb_walker_cache.tags.tagsinuse            0                       # Cycle average of tags in use
system.cpu.itb_walker_cache.tags.total_refs            0                       # Total number of references to valid blocks.
system.cpu.itb_walker_cache.tags.sampled_refs            0                       # Sample count of references to valid blocks.
system.cpu.itb_walker_cache.tags.avg_refs          nan                       # Average number of references to valid blocks.
system.cpu.itb_walker_cache.tags.warmup_cycle            0                       # Cycle when the warmup percentage was hit.
system.cpu.itb_walker_cache.tags.tag_accesses            0                       # Number of tag accesses
system.cpu.itb_walker_cache.tags.data_accesses            0                       # Number of data accesses
system.cpu.itb_walker_cache.pwrStateResidencyTicks::UNDEFINED 1946181314000                       # Cumulative time (in ticks) in various power states
system.cpu.itb_walker_cache.blocked_cycles::no_mshrs            0                       # number of cycles access was blocked
system.cpu.itb_walker_cache.blocked_cycles::no_targets            0                       # number of cycles access was blocked
system.cpu.itb_walker_cache.blocked::no_mshrs            0                       # number of cycles access was blocked
system.cpu.itb_walker_cache.blocked::no_targets            0                       # number of cycles access was blocked
system.cpu.itb_walker_cache.avg_blocked_cycles::no_mshrs          nan                       # average number of cycles each access was blocked
system.cpu.itb_walker_cache.avg_blocked_cycles::no_targets          nan                       # average number of cycles each access was blocked
system.cpu.itb_walker_cache.replacements            0                       # number of replacements
system.l2.tags.pwrStateResidencyTicks::UNDEFINED 1946181314000                       # Cumulative time (in ticks) in various power states
system.l2.tags.tagsinuse                  2046.520736                       # Cycle average of tags in use
system.l2.tags.total_refs                     3529256                       # Total number of references to valid blocks.
system.l2.tags.sampled_refs                   1712437                       # Sample count of references to valid blocks.
system.l2.tags.avg_refs                      2.060955                       # Average number of references to valid blocks.
system.l2.tags.warmup_cycle                    428500                       # Cycle when the warmup percentage was hit.
system.l2.tags.occ_blocks::writebacks        0.395620                       # Average occupied blocks per requestor
system.l2.tags.occ_blocks::cpu.inst          0.470874                       # Average occupied blocks per requestor
system.l2.tags.occ_blocks::cpu.data       2045.654243                       # Average occupied blocks per requestor
system.l2.tags.occ_percent::writebacks       0.000193                       # Average percentage of cache occupancy
system.l2.tags.occ_percent::cpu.inst         0.000230                       # Average percentage of cache occupancy
system.l2.tags.occ_percent::cpu.data         0.998855                       # Average percentage of cache occupancy
system.l2.tags.occ_percent::total            0.999278                       # Average percentage of cache occupancy
system.l2.tags.occ_task_id_blocks::1024          2048                       # Occupied blocks per task id
system.l2.tags.age_task_id_blocks_1024::0           24                       # Occupied blocks per task id
system.l2.tags.age_task_id_blocks_1024::1           73                       # Occupied blocks per task id
system.l2.tags.age_task_id_blocks_1024::2          801                       # Occupied blocks per task id
system.l2.tags.age_task_id_blocks_1024::3         1150                       # Occupied blocks per task id
system.l2.tags.occ_task_id_percent::1024            1                       # Percentage of cache occupancy per task id
system.l2.tags.tag_accesses                  15852205                       # Number of tag accesses
system.l2.tags.data_accesses                 15852205                       # Number of data accesses
system.l2.pwrStateResidencyTicks::UNDEFINED 1946181314000                       # Cumulative time (in ticks) in various power states
system.l2.WritebackDirty_hits::writebacks        72978                       # number of WritebackDirty hits
system.l2.WritebackDirty_hits::total            72978                       # number of WritebackDirty hits
system.l2.WritebackClean_hits::writebacks           10                       # number of WritebackClean hits
system.l2.WritebackClean_hits::total               10                       # number of WritebackClean hits
system.l2.ReadExReq_hits::cpu.data                  2                       # number of ReadExReq hits
system.l2.ReadExReq_hits::total                     2                       # number of ReadExReq hits
system.l2.ReadSharedReq_hits::cpu.data          55974                       # number of ReadSharedReq hits
system.l2.ReadSharedReq_hits::total             55974                       # number of ReadSharedReq hits
system.l2.demand_hits::cpu.data                 55976                       # number of demand (read+write) hits
system.l2.demand_hits::total                    55976                       # number of demand (read+write) hits
system.l2.overall_hits::cpu.data                55976                       # number of overall hits
system.l2.overall_hits::total                   55976                       # number of overall hits
system.l2.ReadExReq_misses::cpu.data            16995                       # number of ReadExReq misses
system.l2.ReadExReq_misses::total               16995                       # number of ReadExReq misses
system.l2.ReadCleanReq_misses::cpu.inst           348                       # number of ReadCleanReq misses
system.l2.ReadCleanReq_misses::total              348                       # number of ReadCleanReq misses
system.l2.ReadSharedReq_misses::cpu.data      1694577                       # number of ReadSharedReq misses
system.l2.ReadSharedReq_misses::total         1694577                       # number of ReadSharedReq misses
system.l2.demand_misses::cpu.inst                 348                       # number of demand (read+write) misses
system.l2.demand_misses::cpu.data             1711572                       # number of demand (read+write) misses
system.l2.demand_misses::total                1711920                       # number of demand (read+write) misses
system.l2.overall_misses::cpu.inst                348                       # number of overall misses
system.l2.overall_misses::cpu.data            1711572                       # number of overall misses
system.l2.overall_misses::total               1711920                       # number of overall misses
system.l2.ReadExReq_miss_latency::cpu.data    990665500                       # number of ReadExReq miss cycles
system.l2.ReadExReq_miss_latency::total     990665500                       # number of ReadExReq miss cycles
system.l2.ReadCleanReq_miss_latency::cpu.inst     68662500                       # number of ReadCleanReq miss cycles
system.l2.ReadCleanReq_miss_latency::total     68662500                       # number of ReadCleanReq miss cycles
system.l2.ReadSharedReq_miss_latency::cpu.data  53400189500                       # number of ReadSharedReq miss cycles
system.l2.ReadSharedReq_miss_latency::total  53400189500                       # number of ReadSharedReq miss cycles
system.l2.demand_miss_latency::cpu.inst      68662500                       # number of demand (read+write) miss cycles
system.l2.demand_miss_latency::cpu.data   54390855000                       # number of demand (read+write) miss cycles
system.l2.demand_miss_latency::total      54459517500                       # number of demand (read+write) miss cycles
system.l2.overall_miss_latency::cpu.inst     68662500                       # number of overall miss cycles
system.l2.overall_miss_latency::cpu.data  54390855000                       # number of overall miss cycles
system.l2.overall_miss_latency::total     54459517500                       # number of overall miss cycles
system.l2.WritebackDirty_accesses::writebacks        72978                       # number of WritebackDirty accesses(hits+misses)
system.l2.WritebackDirty_accesses::total        72978                       # number of WritebackDirty accesses(hits+misses)
system.l2.WritebackClean_accesses::writebacks           10                       # number of WritebackClean accesses(hits+misses)
system.l2.WritebackClean_accesses::total           10                       # number of WritebackClean accesses(hits+misses)
system.l2.ReadExReq_accesses::cpu.data          16997                       # number of ReadExReq accesses(hits+misses)
system.l2.ReadExReq_accesses::total             16997                       # number of ReadExReq accesses(hits+misses)
system.l2.ReadCleanReq_accesses::cpu.inst          348                       # number of ReadCleanReq accesses(hits+misses)
system.l2.ReadCleanReq_accesses::total            348                       # number of ReadCleanReq accesses(hits+misses)
system.l2.ReadSharedReq_accesses::cpu.data      1750551                       # number of ReadSharedReq accesses(hits+misses)
system.l2.ReadSharedReq_accesses::total       1750551                       # number of ReadSharedReq accesses(hits+misses)
system.l2.demand_accesses::cpu.inst               348                       # number of demand (read+write) accesses
system.l2.demand_accesses::cpu.data           1767548                       # number of demand (read+write) accesses
system.l2.demand_accesses::total              1767896                       # number of demand (read+write) accesses
system.l2.overall_accesses::cpu.inst              348                       # number of overall (read+write) accesses
system.l2.overall_accesses::cpu.data          1767548                       # number of overall (read+write) accesses
system.l2.overall_accesses::total             1767896                       # number of overall (read+write) accesses
system.l2.ReadExReq_miss_rate::cpu.data      0.999882                       # miss rate for ReadExReq accesses
system.l2.ReadExReq_miss_rate::total         0.999882                       # miss rate for ReadExReq accesses
system.l2.ReadCleanReq_miss_rate::cpu.inst            1                       # miss rate for ReadCleanReq accesses
system.l2.ReadCleanReq_miss_rate::total             1                       # miss rate for ReadCleanReq accesses
system.l2.ReadSharedReq_miss_rate::cpu.data     0.968025                       # miss rate for ReadSharedReq accesses
system.l2.ReadSharedReq_miss_rate::total     0.968025                       # miss rate for ReadSharedReq accesses
system.l2.demand_miss_rate::cpu.inst                1                       # miss rate for demand accesses
system.l2.demand_miss_rate::cpu.data         0.968331                       # miss rate for demand accesses
system.l2.demand_miss_rate::total            0.968338                       # miss rate for demand accesses
system.l2.overall_miss_rate::cpu.inst               1                       # miss rate for overall accesses
system.l2.overall_miss_rate::cpu.data        0.968331                       # miss rate for overall accesses
system.l2.overall_miss_rate::total           0.968338                       # miss rate for overall accesses
system.l2.ReadExReq_avg_miss_latency::cpu.data 58291.585761                       # average ReadExReq miss latency
system.l2.ReadExReq_avg_miss_latency::total 58291.585761                       # average ReadExReq miss latency
system.l2.ReadCleanReq_avg_miss_latency::cpu.inst 197306.034483                       # average ReadCleanReq miss latency
system.l2.ReadCleanReq_avg_miss_latency::total 197306.034483                       # average ReadCleanReq miss latency
system.l2.ReadSharedReq_avg_miss_latency::cpu.data 31512.400735                       # average ReadSharedReq miss latency
system.l2.ReadSharedReq_avg_miss_latency::total 31512.400735                       # average ReadSharedReq miss latency
system.l2.demand_avg_miss_latency::cpu.inst 197306.034483                       # average overall miss latency
system.l2.demand_avg_miss_latency::cpu.data 31778.303805                       # average overall miss latency
system.l2.demand_avg_miss_latency::total 31811.952369                       # average overall miss latency
system.l2.overall_avg_miss_latency::cpu.inst 197306.034483                       # average overall miss latency
system.l2.overall_avg_miss_latency::cpu.data 31778.303805                       # average overall miss latency
system.l2.overall_avg_miss_latency::total 31811.952369                       # average overall miss latency
system.l2.blocked_cycles::no_mshrs                  0                       # number of cycles access was blocked
system.l2.blocked_cycles::no_targets                0                       # number of cycles access was blocked
system.l2.blocked::no_mshrs                         0                       # number of cycles access was blocked
system.l2.blocked::no_targets                       0                       # number of cycles access was blocked
system.l2.avg_blocked_cycles::no_mshrs            nan                       # average number of cycles each access was blocked
system.l2.avg_blocked_cycles::no_targets          nan                       # average number of cycles each access was blocked
system.l2.writebacks::writebacks              1709503                       # number of writebacks
system.l2.writebacks::total                   1709503                       # number of writebacks
system.l2.CleanEvict_mshr_misses::writebacks         5686                       # number of CleanEvict MSHR misses
system.l2.CleanEvict_mshr_misses::total          5686                       # number of CleanEvict MSHR misses
system.l2.ReadExReq_mshr_misses::cpu.data        16995                       # number of ReadExReq MSHR misses
system.l2.ReadExReq_mshr_misses::total          16995                       # number of ReadExReq MSHR misses
system.l2.ReadCleanReq_mshr_misses::cpu.inst          348                       # number of ReadCleanReq MSHR misses
system.l2.ReadCleanReq_mshr_misses::total          348                       # number of ReadCleanReq MSHR misses
system.l2.ReadSharedReq_mshr_misses::cpu.data      1694577                       # number of ReadSharedReq MSHR misses
system.l2.ReadSharedReq_mshr_misses::total      1694577                       # number of ReadSharedReq MSHR misses
system.l2.demand_mshr_misses::cpu.inst            348                       # number of demand (read+write) MSHR misses
system.l2.demand_mshr_misses::cpu.data        1711572                       # number of demand (read+write) MSHR misses
system.l2.demand_mshr_misses::total           1711920                       # number of demand (read+write) MSHR misses
system.l2.overall_mshr_misses::cpu.inst           348                       # number of overall MSHR misses
system.l2.overall_mshr_misses::cpu.data       1711572                       # number of overall MSHR misses
system.l2.overall_mshr_misses::total          1711920                       # number of overall MSHR misses
system.l2.ReadExReq_mshr_miss_latency::cpu.data    820715500                       # number of ReadExReq MSHR miss cycles
system.l2.ReadExReq_mshr_miss_latency::total    820715500                       # number of ReadExReq MSHR miss cycles
system.l2.ReadCleanReq_mshr_miss_latency::cpu.inst     65182500                       # number of ReadCleanReq MSHR miss cycles
system.l2.ReadCleanReq_mshr_miss_latency::total     65182500                       # number of ReadCleanReq MSHR miss cycles
system.l2.ReadSharedReq_mshr_miss_latency::cpu.data  36454419500                       # number of ReadSharedReq MSHR miss cycles
system.l2.ReadSharedReq_mshr_miss_latency::total  36454419500                       # number of ReadSharedReq MSHR miss cycles
system.l2.demand_mshr_miss_latency::cpu.inst     65182500                       # number of demand (read+write) MSHR miss cycles
system.l2.demand_mshr_miss_latency::cpu.data  37275135000                       # number of demand (read+write) MSHR miss cycles
system.l2.demand_mshr_miss_latency::total  37340317500                       # number of demand (read+write) MSHR miss cycles
system.l2.overall_mshr_miss_latency::cpu.inst     65182500                       # number of overall MSHR miss cycles
system.l2.overall_mshr_miss_latency::cpu.data  37275135000                       # number of overall MSHR miss cycles
system.l2.overall_mshr_miss_latency::total  37340317500                       # number of overall MSHR miss cycles
system.l2.CleanEvict_mshr_miss_rate::writebacks          inf                       # mshr miss rate for CleanEvict accesses
system.l2.CleanEvict_mshr_miss_rate::total          inf                       # mshr miss rate for CleanEvict accesses
system.l2.ReadExReq_mshr_miss_rate::cpu.data     0.999882                       # mshr miss rate for ReadExReq accesses
system.l2.ReadExReq_mshr_miss_rate::total     0.999882                       # mshr miss rate for ReadExReq accesses
system.l2.ReadCleanReq_mshr_miss_rate::cpu.inst            1                       # mshr miss rate for ReadCleanReq accesses
system.l2.ReadCleanReq_mshr_miss_rate::total            1                       # mshr miss rate for ReadCleanReq accesses
system.l2.ReadSharedReq_mshr_miss_rate::cpu.data     0.968025                       # mshr miss rate for ReadSharedReq accesses
system.l2.ReadSharedReq_mshr_miss_rate::total     0.968025                       # mshr miss rate for ReadSharedReq accesses
system.l2.demand_mshr_miss_rate::cpu.inst            1                       # mshr miss rate for demand accesses
system.l2.demand_mshr_miss_rate::cpu.data     0.968331                       # mshr miss rate for demand accesses
system.l2.demand_mshr_miss_rate::total       0.968338                       # mshr miss rate for demand accesses
system.l2.overall_mshr_miss_rate::cpu.inst            1                       # mshr miss rate for overall accesses
system.l2.overall_mshr_miss_rate::cpu.data     0.968331                       # mshr miss rate for overall accesses
system.l2.overall_mshr_miss_rate::total      0.968338                       # mshr miss rate for overall accesses
system.l2.ReadExReq_avg_mshr_miss_latency::cpu.data 48291.585761                       # average ReadExReq mshr miss latency
system.l2.ReadExReq_avg_mshr_miss_latency::total 48291.585761                       # average ReadExReq mshr miss latency
system.l2.ReadCleanReq_avg_mshr_miss_latency::cpu.inst 187306.034483                       # average ReadCleanReq mshr miss latency
system.l2.ReadCleanReq_avg_mshr_miss_latency::total 187306.034483                       # average ReadCleanReq mshr miss latency
system.l2.ReadSharedReq_avg_mshr_miss_latency::cpu.data 21512.400735                       # average ReadSharedReq mshr miss latency
system.l2.ReadSharedReq_avg_mshr_miss_latency::total 21512.400735                       # average ReadSharedReq mshr miss latency
system.l2.demand_avg_mshr_miss_latency::cpu.inst 187306.034483                       # average overall mshr miss latency
system.l2.demand_avg_mshr_miss_latency::cpu.data 21778.303805                       # average overall mshr miss latency
system.l2.demand_avg_mshr_miss_latency::total 21811.952369                       # average overall mshr miss latency
system.l2.overall_avg_mshr_miss_latency::cpu.inst 187306.034483                       # average overall mshr miss latency
system.l2.overall_avg_mshr_miss_latency::cpu.data 21778.303805                       # average overall mshr miss latency
system.l2.overall_avg_mshr_miss_latency::total 21811.952369                       # average overall mshr miss latency
system.l2.replacements                        1710389                       # number of replacements
system.l3.tags.pwrStateResidencyTicks::UNDEFINED 1946181314000                       # Cumulative time (in ticks) in various power states
system.l3.tags.tagsinuse                 14221.941559                       # Cycle average of tags in use
system.l3.tags.total_refs                     3427172                       # Total number of references to valid blocks.
system.l3.tags.sampled_refs                     17449                       # Sample count of references to valid blocks.
system.l3.tags.avg_refs                    196.410797                       # Average number of references to valid blocks.
system.l3.tags.warmup_cycle                    418000                       # Cycle when the warmup percentage was hit.
system.l3.tags.occ_blocks::cpu.inst        142.175634                       # Average occupied blocks per requestor
system.l3.tags.occ_blocks::cpu.data      14079.765925                       # Average occupied blocks per requestor
system.l3.tags.occ_percent::cpu.inst         0.008678                       # Average percentage of cache occupancy
system.l3.tags.occ_percent::cpu.data         0.859361                       # Average percentage of cache occupancy
system.l3.tags.occ_percent::total            0.868038                       # Average percentage of cache occupancy
system.l3.tags.occ_task_id_blocks::1024         16384                       # Occupied blocks per task id
system.l3.tags.age_task_id_blocks_1024::0           24                       # Occupied blocks per task id
system.l3.tags.age_task_id_blocks_1024::1           39                       # Occupied blocks per task id
system.l3.tags.age_task_id_blocks_1024::2            3                       # Occupied blocks per task id
system.l3.tags.age_task_id_blocks_1024::3           26                       # Occupied blocks per task id
system.l3.tags.age_task_id_blocks_1024::4        16292                       # Occupied blocks per task id
system.l3.tags.occ_task_id_percent::1024            1                       # Percentage of cache occupancy per task id
system.l3.tags.tag_accesses                  13726137                       # Number of tag accesses
system.l3.tags.data_accesses                 13726137                       # Number of data accesses
system.l3.pwrStateResidencyTicks::UNDEFINED 1946181314000                       # Cumulative time (in ticks) in various power states
system.l3.WritebackDirty_hits::writebacks      1709503                       # number of WritebackDirty hits
system.l3.WritebackDirty_hits::total          1709503                       # number of WritebackDirty hits
system.l3.ReadExReq_hits::cpu.data                  1                       # number of ReadExReq hits
system.l3.ReadExReq_hits::total                     1                       # number of ReadExReq hits
system.l3.ReadSharedReq_hits::cpu.data        1694470                       # number of ReadSharedReq hits
system.l3.ReadSharedReq_hits::total           1694470                       # number of ReadSharedReq hits
system.l3.demand_hits::cpu.data               1694471                       # number of demand (read+write) hits
system.l3.demand_hits::total                  1694471                       # number of demand (read+write) hits
system.l3.overall_hits::cpu.data              1694471                       # number of overall hits
system.l3.overall_hits::total                 1694471                       # number of overall hits
system.l3.ReadExReq_misses::cpu.data            16994                       # number of ReadExReq misses
system.l3.ReadExReq_misses::total               16994                       # number of ReadExReq misses
system.l3.ReadSharedReq_misses::cpu.inst          348                       # number of ReadSharedReq misses
system.l3.ReadSharedReq_misses::cpu.data          107                       # number of ReadSharedReq misses
system.l3.ReadSharedReq_misses::total             455                       # number of ReadSharedReq misses
system.l3.demand_misses::cpu.inst                 348                       # number of demand (read+write) misses
system.l3.demand_misses::cpu.data               17101                       # number of demand (read+write) misses
system.l3.demand_misses::total                  17449                       # number of demand (read+write) misses
system.l3.overall_misses::cpu.inst                348                       # number of overall misses
system.l3.overall_misses::cpu.data              17101                       # number of overall misses
system.l3.overall_misses::total                 17449                       # number of overall misses
system.l3.ReadExReq_miss_latency::cpu.data    633760000                       # number of ReadExReq miss cycles
system.l3.ReadExReq_miss_latency::total     633760000                       # number of ReadExReq miss cycles
system.l3.ReadSharedReq_miss_latency::cpu.inst     61354500                       # number of ReadSharedReq miss cycles
system.l3.ReadSharedReq_miss_latency::cpu.data     22137500                       # number of ReadSharedReq miss cycles
system.l3.ReadSharedReq_miss_latency::total     83492000                       # number of ReadSharedReq miss cycles
system.l3.demand_miss_latency::cpu.inst      61354500                       # number of demand (read+write) miss cycles
system.l3.demand_miss_latency::cpu.data     655897500                       # number of demand (read+write) miss cycles
system.l3.demand_miss_latency::total        717252000                       # number of demand (read+write) miss cycles
system.l3.overall_miss_latency::cpu.inst     61354500                       # number of overall miss cycles
system.l3.overall_miss_latency::cpu.data    655897500                       # number of overall miss cycles
system.l3.overall_miss_latency::total       717252000                       # number of overall miss cycles
system.l3.WritebackDirty_accesses::writebacks      1709503                       # number of WritebackDirty accesses(hits+misses)
system.l3.WritebackDirty_accesses::total      1709503                       # number of WritebackDirty accesses(hits+misses)
system.l3.ReadExReq_accesses::cpu.data          16995                       # number of ReadExReq accesses(hits+misses)
system.l3.ReadExReq_accesses::total             16995                       # number of ReadExReq accesses(hits+misses)
system.l3.ReadSharedReq_accesses::cpu.inst          348                       # number of ReadSharedReq accesses(hits+misses)
system.l3.ReadSharedReq_accesses::cpu.data      1694577                       # number of ReadSharedReq accesses(hits+misses)
system.l3.ReadSharedReq_accesses::total       1694925                       # number of ReadSharedReq accesses(hits+misses)
system.l3.demand_accesses::cpu.inst               348                       # number of demand (read+write) accesses
system.l3.demand_accesses::cpu.data           1711572                       # number of demand (read+write) accesses
system.l3.demand_accesses::total              1711920                       # number of demand (read+write) accesses
system.l3.overall_accesses::cpu.inst              348                       # number of overall (read+write) accesses
system.l3.overall_accesses::cpu.data          1711572                       # number of overall (read+write) accesses
system.l3.overall_accesses::total             1711920                       # number of overall (read+write) accesses
system.l3.ReadExReq_miss_rate::cpu.data      0.999941                       # miss rate for ReadExReq accesses
system.l3.ReadExReq_miss_rate::total         0.999941                       # miss rate for ReadExReq accesses
system.l3.ReadSharedReq_miss_rate::cpu.inst            1                       # miss rate for ReadSharedReq accesses
system.l3.ReadSharedReq_miss_rate::cpu.data     0.000063                       # miss rate for ReadSharedReq accesses
system.l3.ReadSharedReq_miss_rate::total     0.000268                       # miss rate for ReadSharedReq accesses
system.l3.demand_miss_rate::cpu.inst                1                       # miss rate for demand accesses
system.l3.demand_miss_rate::cpu.data         0.009991                       # miss rate for demand accesses
system.l3.demand_miss_rate::total            0.010193                       # miss rate for demand accesses
system.l3.overall_miss_rate::cpu.inst               1                       # miss rate for overall accesses
system.l3.overall_miss_rate::cpu.data        0.009991                       # miss rate for overall accesses
system.l3.overall_miss_rate::total           0.010193                       # miss rate for overall accesses
system.l3.ReadExReq_avg_miss_latency::cpu.data 37293.162293                       # average ReadExReq miss latency
system.l3.ReadExReq_avg_miss_latency::total 37293.162293                       # average ReadExReq miss latency
system.l3.ReadSharedReq_avg_miss_latency::cpu.inst 176306.034483                       # average ReadSharedReq miss latency
system.l3.ReadSharedReq_avg_miss_latency::cpu.data 206892.523364                       # average ReadSharedReq miss latency
system.l3.ReadSharedReq_avg_miss_latency::total 183498.901099                       # average ReadSharedReq miss latency
system.l3.demand_avg_miss_latency::cpu.inst 176306.034483                       # average overall miss latency
system.l3.demand_avg_miss_latency::cpu.data 38354.336004                       # average overall miss latency
system.l3.demand_avg_miss_latency::total 41105.622099                       # average overall miss latency
system.l3.overall_avg_miss_latency::cpu.inst 176306.034483                       # average overall miss latency
system.l3.overall_avg_miss_latency::cpu.data 38354.336004                       # average overall miss latency
system.l3.overall_avg_miss_latency::total 41105.622099                       # average overall miss latency
system.l3.blocked_cycles::no_mshrs                  0                       # number of cycles access was blocked
system.l3.blocked_cycles::no_targets                0                       # number of cycles access was blocked
system.l3.blocked::no_mshrs                         0                       # number of cycles access was blocked
system.l3.blocked::no_targets                       0                       # number of cycles access was blocked
system.l3.avg_blocked_cycles::no_mshrs            nan                       # average number of cycles each access was blocked
system.l3.avg_blocked_cycles::no_targets          nan                       # average number of cycles each access was blocked
system.l3.writebacks::writebacks                  692                       # number of writebacks
system.l3.writebacks::total                       692                       # number of writebacks
system.l3.ReadExReq_mshr_misses::cpu.data        16994                       # number of ReadExReq MSHR misses
system.l3.ReadExReq_mshr_misses::total          16994                       # number of ReadExReq MSHR misses
system.l3.ReadSharedReq_mshr_misses::cpu.inst          348                       # number of ReadSharedReq MSHR misses
system.l3.ReadSharedReq_mshr_misses::cpu.data          107                       # number of ReadSharedReq MSHR misses
system.l3.ReadSharedReq_mshr_misses::total          455                       # number of ReadSharedReq MSHR misses
system.l3.demand_mshr_misses::cpu.inst            348                       # number of demand (read+write) MSHR misses
system.l3.demand_mshr_misses::cpu.data          17101                       # number of demand (read+write) MSHR misses
system.l3.demand_mshr_misses::total             17449                       # number of demand (read+write) MSHR misses
system.l3.overall_mshr_misses::cpu.inst           348                       # number of overall MSHR misses
system.l3.overall_mshr_misses::cpu.data         17101                       # number of overall MSHR misses
system.l3.overall_mshr_misses::total            17449                       # number of overall MSHR misses
system.l3.ReadExReq_mshr_miss_latency::cpu.data    463820000                       # number of ReadExReq MSHR miss cycles
system.l3.ReadExReq_mshr_miss_latency::total    463820000                       # number of ReadExReq MSHR miss cycles
system.l3.ReadSharedReq_mshr_miss_latency::cpu.inst     57874500                       # number of ReadSharedReq MSHR miss cycles
system.l3.ReadSharedReq_mshr_miss_latency::cpu.data     21067500                       # number of ReadSharedReq MSHR miss cycles
system.l3.ReadSharedReq_mshr_miss_latency::total     78942000                       # number of ReadSharedReq MSHR miss cycles
system.l3.demand_mshr_miss_latency::cpu.inst     57874500                       # number of demand (read+write) MSHR miss cycles
system.l3.demand_mshr_miss_latency::cpu.data    484887500                       # number of demand (read+write) MSHR miss cycles
system.l3.demand_mshr_miss_latency::total    542762000                       # number of demand (read+write) MSHR miss cycles
system.l3.overall_mshr_miss_latency::cpu.inst     57874500                       # number of overall MSHR miss cycles
system.l3.overall_mshr_miss_latency::cpu.data    484887500                       # number of overall MSHR miss cycles
system.l3.overall_mshr_miss_latency::total    542762000                       # number of overall MSHR miss cycles
system.l3.ReadExReq_mshr_miss_rate::cpu.data     0.999941                       # mshr miss rate for ReadExReq accesses
system.l3.ReadExReq_mshr_miss_rate::total     0.999941                       # mshr miss rate for ReadExReq accesses
system.l3.ReadSharedReq_mshr_miss_rate::cpu.inst            1                       # mshr miss rate for ReadSharedReq accesses
system.l3.ReadSharedReq_mshr_miss_rate::cpu.data     0.000063                       # mshr miss rate for ReadSharedReq accesses
system.l3.ReadSharedReq_mshr_miss_rate::total     0.000268                       # mshr miss rate for ReadSharedReq accesses
system.l3.demand_mshr_miss_rate::cpu.inst            1                       # mshr miss rate for demand accesses
system.l3.demand_mshr_miss_rate::cpu.data     0.009991                       # mshr miss rate for demand accesses
system.l3.demand_mshr_miss_rate::total       0.010193                       # mshr miss rate for demand accesses
system.l3.overall_mshr_miss_rate::cpu.inst            1                       # mshr miss rate for overall accesses
system.l3.overall_mshr_miss_rate::cpu.data     0.009991                       # mshr miss rate for overall accesses
system.l3.overall_mshr_miss_rate::total      0.010193                       # mshr miss rate for overall accesses
system.l3.ReadExReq_avg_mshr_miss_latency::cpu.data 27293.162293                       # average ReadExReq mshr miss latency
system.l3.ReadExReq_avg_mshr_miss_latency::total 27293.162293                       # average ReadExReq mshr miss latency
system.l3.ReadSharedReq_avg_mshr_miss_latency::cpu.inst 166306.034483                       # average ReadSharedReq mshr miss latency
system.l3.ReadSharedReq_avg_mshr_miss_latency::cpu.data 196892.523364                       # average ReadSharedReq mshr miss latency
system.l3.ReadSharedReq_avg_mshr_miss_latency::total 173498.901099                       # average ReadSharedReq mshr miss latency
system.l3.demand_avg_mshr_miss_latency::cpu.inst 166306.034483                       # average overall mshr miss latency
system.l3.demand_avg_mshr_miss_latency::cpu.data 28354.336004                       # average overall mshr miss latency
system.l3.demand_avg_mshr_miss_latency::total 31105.622099                       # average overall mshr miss latency
system.l3.overall_avg_mshr_miss_latency::cpu.inst 166306.034483                       # average overall mshr miss latency
system.l3.overall_avg_mshr_miss_latency::cpu.data 28354.336004                       # average overall mshr miss latency
system.l3.overall_avg_mshr_miss_latency::total 31105.622099                       # average overall mshr miss latency
system.l3.replacements                           1065                       # number of replacements
system.membus.snoop_filter.tot_requests         18210                       # Total number of requests made to the snoop filter.
system.membus.snoop_filter.hit_single_requests          761                       # Number of requests hitting in the snoop filter with a single holder of the requested data.
system.membus.snoop_filter.hit_multi_requests            0                       # Number of requests hitting in the snoop filter with multiple (>1) holders of the requested data.
system.membus.snoop_filter.tot_snoops               0                       # Total number of snoops made to the snoop filter.
system.membus.snoop_filter.hit_single_snoops            0                       # Number of snoops hitting in the snoop filter with a single holder of the requested data.
system.membus.snoop_filter.hit_multi_snoops            0                       # Number of snoops hitting in the snoop filter with multiple (>1) holders of the requested data.
system.membus.pwrStateResidencyTicks::UNDEFINED 1946181314000                       # Cumulative time (in ticks) in various power states
system.membus.trans_dist::ReadResp                455                       # Transaction distribution
system.membus.trans_dist::WritebackDirty          692                       # Transaction distribution
system.membus.trans_dist::CleanEvict               69                       # Transaction distribution
system.membus.trans_dist::ReadExReq             16994                       # Transaction distribution
system.membus.trans_dist::ReadExResp            16994                       # Transaction distribution
system.membus.trans_dist::ReadSharedReq           455                       # Transaction distribution
system.membus.pkt_count_system.l3.mem_side::system.mem_ctrls.port        35659                       # Packet count per connected master and slave (bytes)
system.membus.pkt_count_system.l3.mem_side::total        35659                       # Packet count per connected master and slave (bytes)
system.membus.pkt_count::total                  35659                       # Packet count per connected master and slave (bytes)
system.membus.pkt_size_system.l3.mem_side::system.mem_ctrls.port      1161024                       # Cumulative packet size per connected master and slave (bytes)
system.membus.pkt_size_system.l3.mem_side::total      1161024                       # Cumulative packet size per connected master and slave (bytes)
system.membus.pkt_size::total                 1161024                       # Cumulative packet size per connected master and slave (bytes)
system.membus.snoops                                0                       # Total snoops (count)
system.membus.snoopTraffic                          0                       # Total snoop traffic (bytes)
system.membus.snoop_fanout::samples             17449                       # Request fanout histogram
system.membus.snoop_fanout::mean                    0                       # Request fanout histogram
system.membus.snoop_fanout::stdev                   0                       # Request fanout histogram
system.membus.snoop_fanout::underflows              0      0.00%      0.00% # Request fanout histogram
system.membus.snoop_fanout::0                   17449    100.00%    100.00% # Request fanout histogram
system.membus.snoop_fanout::1                       0      0.00%    100.00% # Request fanout histogram
system.membus.snoop_fanout::overflows               0      0.00%    100.00% # Request fanout histogram
system.membus.snoop_fanout::min_value               0                       # Request fanout histogram
system.membus.snoop_fanout::max_value               0                       # Request fanout histogram
system.membus.snoop_fanout::total               17449                       # Request fanout histogram
system.membus.reqLayer2.occupancy            20978500                       # Layer occupancy (ticks)
system.membus.reqLayer2.utilization               0.0                       # Layer utilization (%)
system.membus.respLayer1.occupancy           87245500                       # Layer occupancy (ticks)
system.membus.respLayer1.utilization              0.0                       # Layer utilization (%)
system.tol2bus.snoop_filter.tot_requests      3534942                       # Total number of requests made to the snoop filter.
system.tol2bus.snoop_filter.hit_single_requests      1767046                       # Number of requests hitting in the snoop filter with a single holder of the requested data.
system.tol2bus.snoop_filter.hit_multi_requests            0                       # Number of requests hitting in the snoop filter with multiple (>1) holders of the requested data.
system.tol2bus.snoop_filter.tot_snoops           6821                       # Total number of snoops made to the snoop filter.
system.tol2bus.snoop_filter.hit_single_snoops         6821                       # Number of snoops hitting in the snoop filter with a single holder of the requested data.
system.tol2bus.snoop_filter.hit_multi_snoops            0                       # Number of snoops hitting in the snoop filter with multiple (>1) holders of the requested data.
system.tol2bus.pwrStateResidencyTicks::UNDEFINED 1946181314000                       # Cumulative time (in ticks) in various power states
system.tol2bus.trans_dist::ReadResp           1750899                       # Transaction distribution
system.tol2bus.trans_dist::WritebackDirty      1782481                       # Transaction distribution
system.tol2bus.trans_dist::WritebackClean           10                       # Transaction distribution
system.tol2bus.trans_dist::CleanEvict         1695248                       # Transaction distribution
system.tol2bus.trans_dist::ReadExReq            16997                       # Transaction distribution
system.tol2bus.trans_dist::ReadExResp           16997                       # Transaction distribution
system.tol2bus.trans_dist::ReadCleanReq           348                       # Transaction distribution
system.tol2bus.trans_dist::ReadSharedReq      1750551                       # Transaction distribution
system.tol2bus.pkt_count_system.cpu.icache.mem_side::system.l2.cpu_side          706                       # Packet count per connected master and slave (bytes)
system.tol2bus.pkt_count_system.cpu.dcache.mem_side::system.l2.cpu_side      5302132                       # Packet count per connected master and slave (bytes)
system.tol2bus.pkt_count::total               5302838                       # Packet count per connected master and slave (bytes)
system.tol2bus.pkt_size_system.cpu.icache.mem_side::system.l2.cpu_side        22912                       # Cumulative packet size per connected master and slave (bytes)
system.tol2bus.pkt_size_system.cpu.dcache.mem_side::system.l2.cpu_side    117793664                       # Cumulative packet size per connected master and slave (bytes)
system.tol2bus.pkt_size::total              117816576                       # Cumulative packet size per connected master and slave (bytes)
system.tol2bus.snoops                         1710693                       # Total snoops (count)
system.tol2bus.snoopTraffic                 109408192                       # Total snoop traffic (bytes)
system.tol2bus.snoop_fanout::samples          3478589                       # Request fanout histogram
system.tol2bus.snoop_fanout::mean            0.001961                       # Request fanout histogram
system.tol2bus.snoop_fanout::stdev           0.044238                       # Request fanout histogram
system.tol2bus.snoop_fanout::underflows             0      0.00%      0.00% # Request fanout histogram
system.tol2bus.snoop_fanout::0                3471768     99.80%     99.80% # Request fanout histogram
system.tol2bus.snoop_fanout::1                   6821      0.20%    100.00% # Request fanout histogram
system.tol2bus.snoop_fanout::2                      0      0.00%    100.00% # Request fanout histogram
system.tol2bus.snoop_fanout::3                      0      0.00%    100.00% # Request fanout histogram
system.tol2bus.snoop_fanout::4                      0      0.00%    100.00% # Request fanout histogram
system.tol2bus.snoop_fanout::overflows              0      0.00%    100.00% # Request fanout histogram
system.tol2bus.snoop_fanout::min_value              0                       # Request fanout histogram
system.tol2bus.snoop_fanout::max_value              1                       # Request fanout histogram
system.tol2bus.snoop_fanout::total            3478589                       # Request fanout histogram
system.tol2bus.reqLayer0.occupancy         1840459000                       # Layer occupancy (ticks)
system.tol2bus.reqLayer0.utilization              0.1                       # Layer utilization (%)
system.tol2bus.respLayer0.occupancy            522000                       # Layer occupancy (ticks)
system.tol2bus.respLayer0.utilization             0.0                       # Layer utilization (%)
system.tol2bus.respLayer1.occupancy        2651322000                       # Layer occupancy (ticks)
system.tol2bus.respLayer1.utilization             0.1                       # Layer utilization (%)
system.tol3bus.snoop_filter.tot_requests      3427172                       # Total number of requests made to the snoop filter.
system.tol3bus.snoop_filter.hit_single_requests      1715252                       # Number of requests hitting in the snoop filter with a single holder of the requested data.
system.tol3bus.snoop_filter.hit_multi_requests            0                       # Number of requests hitting in the snoop filter with multiple (>1) holders of the requested data.
system.tol3bus.snoop_filter.tot_snoops            304                       # Total number of snoops made to the snoop filter.
system.tol3bus.snoop_filter.hit_single_snoops          304                       # Number of snoops hitting in the snoop filter with a single holder of the requested data.
system.tol3bus.snoop_filter.hit_multi_snoops            0                       # Number of snoops hitting in the snoop filter with multiple (>1) holders of the requested data.
system.tol3bus.pwrStateResidencyTicks::UNDEFINED 1946181314000                       # Cumulative time (in ticks) in various power states
system.tol3bus.trans_dist::ReadResp           1694925                       # Transaction distribution
system.tol3bus.trans_dist::WritebackDirty      1710195                       # Transaction distribution
system.tol3bus.trans_dist::CleanEvict            6122                       # Transaction distribution
system.tol3bus.trans_dist::ReadExReq            16995                       # Transaction distribution
system.tol3bus.trans_dist::ReadExResp           16995                       # Transaction distribution
system.tol3bus.trans_dist::ReadSharedReq      1694925                       # Transaction distribution
system.tol3bus.pkt_count_system.l2.mem_side::system.l3.cpu_side      5139092                       # Packet count per connected master and slave (bytes)
system.tol3bus.pkt_size_system.l2.mem_side::system.l3.cpu_side    218971072                       # Cumulative packet size per connected master and slave (bytes)
system.tol3bus.snoops                            1065                       # Total snoops (count)
system.tol3bus.snoopTraffic                     44288                       # Total snoop traffic (bytes)
system.tol3bus.snoop_fanout::samples          1712985                       # Request fanout histogram
system.tol3bus.snoop_fanout::mean            0.000177                       # Request fanout histogram
system.tol3bus.snoop_fanout::stdev           0.013321                       # Request fanout histogram
system.tol3bus.snoop_fanout::underflows             0      0.00%      0.00% # Request fanout histogram
system.tol3bus.snoop_fanout::0                1712681     99.98%     99.98% # Request fanout histogram
system.tol3bus.snoop_fanout::1                    304      0.02%    100.00% # Request fanout histogram
system.tol3bus.snoop_fanout::overflows              0      0.00%    100.00% # Request fanout histogram
system.tol3bus.snoop_fanout::min_value              0                       # Request fanout histogram
system.tol3bus.snoop_fanout::max_value              1                       # Request fanout histogram
system.tol3bus.snoop_fanout::total            1712985                       # Request fanout histogram
system.tol3bus.reqLayer0.occupancy         3423089000                       # Layer occupancy (ticks)
system.tol3bus.reqLayer0.utilization              0.2                       # Layer utilization (%)
system.tol3bus.respLayer0.occupancy        2567880000                       # Layer occupancy (ticks)
system.tol3bus.respLayer0.utilization             0.1                       # Layer utilization (%)

---------- End Simulation Statistics   ----------
